Version 4
SHEET 1 2428 920
WIRE 640 -192 304 -192
WIRE 688 -192 640 -192
WIRE 864 -192 768 -192
WIRE 864 -96 864 -192
WIRE 1024 -96 864 -96
WIRE 864 -64 864 -96
WIRE 640 -32 640 -192
WIRE 1024 0 1024 -96
WIRE 1072 0 1024 0
WIRE 1472 0 1136 0
WIRE 304 16 304 -192
WIRE 304 16 -144 16
WIRE -144 48 -144 16
WIRE 864 64 864 16
WIRE 640 112 640 48
WIRE 800 112 640 112
WIRE 1472 128 1472 0
WIRE -32 160 -80 160
WIRE 240 160 -32 160
WIRE 528 160 304 160
WIRE 576 160 528 160
WIRE 1584 160 1520 160
WIRE -80 192 -80 160
WIRE 640 240 640 208
WIRE 1472 272 1472 208
WIRE 528 336 528 160
WIRE 576 336 528 336
WIRE 864 336 864 160
WIRE 864 336 656 336
WIRE 864 448 864 336
WIRE 1056 480 912 480
WIRE 1056 512 1056 480
WIRE 864 592 864 528
FLAG -144 128 0
FLAG -80 272 0
FLAG -32 160 IN
FLAG 1472 272 0
FLAG 1584 160 OUT
FLAG 640 240 0
FLAG 864 592 0
FLAG 1056 576 0
SYMBOL voltage -144 32 R0
WINDOW 123 0 0 Left 0
WINDOW 39 0 0 Left 0
SYMATTR InstName V1
SYMATTR Value 9V
SYMBOL voltage -80 176 R0
WINDOW 123 24 124 Left 2
WINDOW 39 0 0 Left 0
WINDOW 3 24 44 Left 2
SYMATTR Value2 AC 1
SYMATTR Value SINE(0 0.1 1K)
SYMATTR InstName V2
SYMBOL npn 800 64 R0
SYMATTR InstName Q2
SYMATTR Value BC108C
SYMBOL npn 576 112 R0
SYMATTR InstName Q1
SYMATTR Value BC108C
SYMBOL polcap 304 144 R90
WINDOW 0 0 32 VBottom 2
WINDOW 3 32 32 VTop 2
SYMATTR InstName C4
SYMATTR Value 2.2µ
SYMBOL res 672 320 R90
WINDOW 0 0 56 VBottom 2
WINDOW 3 32 56 VTop 2
SYMATTR InstName R2
SYMATTR Value 100K
SYMBOL res 624 -48 R0
SYMATTR InstName R3
SYMATTR Value 33K
SYMBOL res 880 32 R180
WINDOW 0 36 76 Left 2
WINDOW 3 36 40 Left 2
SYMATTR InstName R6
SYMATTR Value 8.2K
SYMBOL polcap 1040 512 R0
SYMATTR InstName C1
SYMATTR Value 22µ
SYMBOL cap 1136 -16 R90
WINDOW 0 0 32 VBottom 2
WINDOW 3 32 32 VTop 2
SYMATTR InstName C5
SYMATTR Value 0.01µ
SYMBOL res 784 -208 R90
WINDOW 0 0 56 VBottom 2
WINDOW 3 32 56 VTop 2
SYMATTR InstName R4
SYMATTR Value 330
SYMBOL pot 848 544 M180
WINDOW 3 48 89 Left 2
SYMATTR Value Rt=1K set={fuzz}
SYMATTR InstName U1
SYMATTR SpiceLine ""
SYMBOL pot 1456 224 M180
WINDOW 3 48 89 Left 2
SYMATTR Value Rt=500K set={level}
SYMATTR InstName U2
SYMATTR SpiceLine ""
SYMATTR SpiceModel pot_alps_a
TEXT -176 328 Left 2 !;.ac dec 10 1 100K
TEXT 80 352 Left 2 !;.op
TEXT 112 -344 Left 2 ;Fuzz Face - Sillicon Version
TEXT -24 -336 Left 2 ;Sources:\nhttps://fuzzcentral.ssguitar.com/fuzzface.php\nhttp://geofex.com/article_folders/fuzzface/fftech.htm\nhttp://diy.smallbearelec.com/HowTos/BreadboardSiFF/BreadboardSiFF.htm
TEXT 1232 -96 Left 2 !.param fuzz=1 level=1
TEXT -168 368 Left 2 !.tran 50m
TEXT -176 456 Left 2 !.include ZTX851.spice\n.include BC549.lib
TEXT 0 528 Left 2 !.step param fuzz 0 1 0.1
TEXT 1048 -240 Left 2 ;Use BC108C, BC109C, BC549/550 or ZTX851 for Q1/Q2 value for example
TEXT -1320 792 Left 2 !.model BC108A NPN(Is=7.049f Xti=3 Eg=1.11 Vaf=116.3 Bf=375.5 Ise=7.049f Ne=1.281 Ikf=4.589 Nk=.5 Xtb=1.5 Br=2.611 Isc=121.7p Nc=1.865 Ikr=5.313 Rc=1.464 Cjc=5.38p Mjc=.329 Vjc=.6218 Fc=.5 Cje=11.5p Mje=.2717 Vje=.5 Tr=10n Tf=451p Itf=6.194 Xtf=17.43 Vtf=10 Vceo=30 Icrating=100m mfg=Philips)\n.model BC108B NPN(Is=7.049f Xti=3 Eg=1.11 Vaf=59.59 Bf=381.7 Ise=59.74f Ne=1.522 Ikf=3.289 Nk=.5 Xtb=1.5 Br=2.359 Isc=192.9p Nc=1.954 Ikr=7.807 Rc=1.427 Cjc=5.38p Mjc=.329 Vjc=.6218 Fc=.5 Cje=11.5p Mje=.2718 Vje=.5 Tr=10n Tf=438p Itf=5.716 Xtf=14.51 Vtf=10 Vceo=30 Icrating=100m mfg=Philips)\n.model BC108C NPN(Is=7.049f Xti=3 Eg=1.11 Vaf=28.14 Bf=677 Ise=7.049f Ne=1.38 Ikf=96.23 Nk=.5 Xtb=1.5 Br=2.209 Isc=250.3p Nc=2.002 Ikr=10.73 Rc=1.433 Cjc=5.38p Mjc=.329 Vjc=.6218 Fc=.5 Cje=11.5p Mje=.2717 Vje=.5 Tr=10n Tf=437.8p Itf=3.097 Xtf=12.85 Vtf=10 Vceo=30 Icrating=100m mfg=Philips)\n.model BC109B NPN(Is=7.049f Xti=3 Eg=1.11 Vaf=59.59 Bf=381.7 Ise=59.74f Ne=1.522 Ikf=3.289 Nk=.5 Xtb=1.5 Br=2.359 Isc=192.9p Nc=1.954 Ikr=7.807 Rc=1.427 Cjc=5.38p Mjc=.329 Vjc=.6218 Fc=.5 Cje=11.5p Mje=.2718 Vje=.5 Tr=10n Tf=438p Itf=5.716 Xtf=14.51 Vtf=10 Vceo=30 Icrating=100m mfg=Philips)\n.model BC109C NPN(Is=7.049f Xti=3 Eg=1.11 Vaf=28.14 Bf=677 Ise=7.049f Ne=1.38 Ikf=96.23 Nk=.5 Xtb=1.5 Br=2.209 Isc=250.3p Nc=2.002 Ikr=10.73 Rc=1.433 Cjc=5.38p Mjc=.329 Vjc=.6218 Fc=.5 Cje=11.5p Mje=.2717 Vje=.5 Tr=10n Tf=437.8p Itf=3.097 Xtf=12.85 Vtf=10 Vceo=30 Icrating=100m mfg=Philips)
TEXT -1296 704 Left 2 ;https://ltwiki.org/?title=Components_Library_and_Circuits\n(standard.bjt)
